      27
  genarated by 
  H          33.902245       18.040380      106.710236
  C          33.580002       18.789999      105.979996
  C          33.720001       18.539999      104.630005
  H          34.130001       17.590000      104.290001
  C          33.299999       19.590000      103.809998
  C          33.000000       20.639999      104.650002
  S          32.869999       20.350000      106.389999
  C          33.279999       19.550001      102.330002
  H          34.110641       18.945490      101.951027
  H          33.401295       20.556877      101.917068
  C          31.940001       18.950001      101.850006
  H          31.126625       19.674696      101.960739
  H          31.670631       18.071680      102.445839
  C          32.139999       18.570000      100.369995
  H          32.883961       17.768997      100.307205
  H          32.540375       19.436077       99.832748
  C          30.840000       18.099998       99.659996
  H          30.051426       18.844713       99.810242
  H          30.494022       17.164600      100.112053
  C          31.090000       17.900000       98.180000
  H          30.180733       17.500704       97.718681
  H          31.875698       17.148010       98.052658
  C          31.490000       19.150000       97.470001
  H          30.722504       19.927467       97.544289
  H          32.412949       19.575712       97.877373
  H          31.664423       18.977688       96.402802
  H          32.844769       21.642208      104.237068
