  702
FINAL HEAT OF FORMATION =     0.000000
 H    28.599562   208.668091    54.514462
 C    28.640001   207.619995    54.200001
 C    29.600000   207.210007    53.320000
 H    30.400000   207.850006    52.989998
 C    29.440001   205.899994    52.980000
 C    28.430000   205.419998    53.839996
 S    27.449999   206.490005    54.850002
 C    30.230000   205.240005    51.830002
 H    29.676939   205.319794    50.888309
 H    30.375015   204.172546    52.026272
 C    31.559999   205.960007    51.739998
 H    31.435497   207.021149    51.979797
 H    31.955500   205.903168    50.720501
 C    32.560001   205.309998    52.729996
 H    32.545582   204.219604    52.630695
 H    32.280354   205.537552    53.763939
 C    33.889999   205.869996    52.390000
 H    33.900166   206.939088    52.626573
 H    34.054646   205.773912    51.311723
 C    35.050003   205.200013    53.120000
 H    35.947067   205.825364    53.063088
 H    35.293732   204.242311    52.648370
 C    34.649998   204.979996    54.590001
 H    34.416786   205.922073    55.097058
 H    33.764786   204.342239    54.683187
 H    35.448639   204.499771    55.164956
 C    28.020000   204.130005    53.600002
 C    26.660000   204.209991    53.189999
 H    26.090000   205.130005    53.180000
 C    26.300001   203.050002    52.490003
 C    27.360001   202.140014    52.480004
 S    28.740002   202.490005    53.489999
 C    24.890001   202.929992    51.960000
 H    24.612122   201.872542    52.020028
 H    24.919851   203.203185    50.900047
 C    23.810001   203.710006    52.589996
 H    24.131298   204.732650    52.813610
 H    23.493118   203.263672    53.538357
 C    22.639999   203.720000    51.580002
 H    22.634231   202.788665    51.004154
 H    22.767651   204.541137    50.866936
 C    21.320000   203.880004    52.340004
 H    21.120657   204.940383    52.526809
 H    21.386593   203.387360    53.315655
 C    20.190001   203.269988    51.520000
 H    20.569725   202.443725    50.909977
 H    19.775484   204.016478    50.834472
 C    19.070000   202.750000    52.470001
 H    19.439901   201.983994    53.159523
 H    18.647932   203.552246    53.084224
 H    18.237528   202.303040    51.916611
 C    27.400000   201.470000    51.259999
 C    27.279999   200.130004    51.310003
 H    27.070000   199.550002    52.160002
 C    27.660000   199.610000    50.100004
 C    28.020000   200.630003    49.250001
 S    27.889999   202.290007    49.809999
 C    27.849999   198.130003    49.800001
 H    28.186798   197.628447    50.713259
 H    28.645705   198.023436    49.055338
 C    26.610000   197.429991    49.290004
 H    26.034472   198.075880    48.618724
 H    25.942994   197.149978    50.112025
 C    27.119998   196.170011    48.540004
 H    26.267881   195.685942    48.051541
 H    27.525159   195.466627    49.274928
 C    28.210000   196.450009    47.470004
 H    28.896222   197.186627    47.900721
 H    27.706005   196.918057    46.617980
 C    29.059997   195.309995    46.920001
 H    28.577892   194.905453    46.023926
 H    29.098570   194.504163    47.660389
 C    30.459997   195.739986    46.580005
 H    30.473764   196.529888    45.821787
 H    30.992945   196.129742    47.453554
 H    31.059145   194.912258    46.186401
 C    28.649999   200.160002    48.130002
 C    27.860000   200.109998    46.980001
 H    26.739999   200.200009    47.080004
 C    28.619997   199.810010    45.840001
 C    29.929998   199.779996    46.269998
 S    30.309998   199.719998    48.000001
 C    27.999998   199.599987    44.510004
 H    28.630339   200.105633    43.771073
 H    27.029774   200.107570    44.516897
 C    27.769997   198.209987    44.020002
 H    27.108528   197.658230    44.696056
 H    28.709119   197.649044    43.970831
 C    27.149997   198.339992    42.650001
 H    27.714206   199.039302    42.024168
 H    26.127391   198.726497    42.712604
 C    27.169997   196.939997    42.060001
 H    26.622722   196.229244    42.687961
 H    28.191207   196.556575    41.964397
 C    26.499996   197.099986    40.680003
 H    25.417341   197.191905    40.815777
 H    26.676933   196.195491    40.088721
 C    27.019994   198.290004    39.949999
 H    26.842787   199.219264    40.501471
 H    28.099194   198.225367    39.776251
 H    26.547532   198.408365    38.969283
 C    30.809999   199.999996    45.200001
 C    31.389997   201.249996    45.440002
 H    31.280000   201.869992    46.339996
 C    32.299997   201.450008    44.419998
 C    32.239996   200.499996    43.439999
 S    31.249998   199.049999    43.800004
 C    33.229998   202.679989    44.409999
 H    32.714258   203.506969    44.909148
 H    33.400839   202.975323    43.369510
 C    34.599996   202.479992    45.089995
 H    35.243845   201.841778    44.475860
 H    34.479484   201.979047    46.056201
 C    35.219999   203.859997    45.269998
 H    34.655929   204.453809    45.996794
 H    35.213697   204.420711    44.329470
 C    36.639998   203.609998    45.749997
 H    37.195804   203.001125    45.029313
 H    36.642611   203.054654    46.693724
 C    37.219996   204.939999    45.899998
 H    36.892298   205.634868    45.119743
 H    38.314517   204.930127    45.869160
 C    36.700000   205.389996    47.309994
 H    35.606257   205.419141    47.353707
 H    37.031090   204.713118    48.104501
 H    37.054755   206.390730    47.577827
 C    32.620000   200.960002    42.189999
 C    33.319997   199.969996    41.500000
 H    33.659997   199.049998    41.959999
 C    33.449998   200.359980    40.130001
 C    32.579995   201.499995    39.920001
 S    31.899999   202.299983    41.310001
 C    34.259999   199.640009    39.090000
 H    34.719986   200.342813    38.387504
 H    33.635944   198.960626    38.500072
 C    35.359998   198.840007    39.860001
 H    35.638219   197.979608    39.242474
 H    34.909619   198.460765    40.783234
 C    36.679997   199.589991    40.249999
 H    36.441331   200.565638    40.686076
 H    37.284493   199.773509    39.355613
 C    37.449994   198.729992    41.249999
 H    38.450539   199.157177    41.374312
 H    37.568688   197.728114    40.824348
 C    36.809999   198.589992    42.639998
 H    37.361940   197.863491    43.245453
 H    35.783533   198.218410    42.554462
 C    36.839998   199.950008    43.269999
 H    37.861017   200.332166    43.372499
 H    36.283250   200.686931    42.681777
 H    36.400354   199.947308    44.272860
 C    32.009994   201.459985    38.629997
 C    30.779997   200.799997    38.629997
 H    30.339997   200.309992    39.509999
 C    30.079994   201.239998    37.459999
 C    30.999995   201.869988    36.590000
 S    32.629997   202.189995    37.139998
 C    28.589996   201.109995    37.370000
 H    28.263490   200.113382    37.684939
 H    28.245513   201.250405    36.340127
 C    27.959995   202.199991    38.300000
 H    27.881272   201.774760    39.305982
 H    26.945209   202.399164    37.940049
 C    28.699996   203.549982    38.410000
 H    28.437610   204.176798    37.551345
 H    29.779893   203.374857    38.363360
 C    28.349997   204.239985    39.669997
 H    28.487837   203.576228    40.529911
 H    27.298678   204.546168    39.668430
 C    29.260000   205.480006    39.809996
 H    29.196890   205.869106    40.831583
 H    28.909497   206.271113    39.138937
 C    30.699996   205.119989    39.479998
 H    31.091270   204.342982    40.144983
 H    30.804660   204.743890    38.456949
 H    31.369440   205.981729    39.571000
 C    30.409995   202.279992    35.420002
 C    30.229995   203.649987    35.499999
 H    30.839996   204.299996    36.110000
 C    29.269995   204.039985    34.599997
 C    28.669997   202.929985    33.959999
 S    29.469996   201.349998    34.170003
 C    28.959994   205.499992    34.290000
 H    28.003325   205.550666    33.759677
 H    29.729846   205.886299    33.613887
 C    28.889995   206.389992    35.510001
 H    29.843262   206.371300    36.048480
 H    28.119968   206.028649    36.199580
 C    28.559995   207.859978    35.079996
 H    28.708538   208.547265    35.919397
 H    27.510895   207.944497    34.777888
 C    29.489993   208.189994    33.929998
 H    29.187707   207.597374    33.060259
 H    30.502799   207.876579    34.203894
 C    29.529996   209.640007    33.529997
 H    30.113000   209.775062    32.612996
 H    30.009115   210.245170    34.306691
 C    28.069995   210.109993    33.309999
 H    27.568013   209.535331    32.524626
 H    27.464264   210.004800    34.216120
 H    28.018188   211.163108    33.014535
 C    27.379994   203.089988    33.510002
 C    26.559993   202.119988    34.030004
 H    26.839994   201.549996    34.910001
 C    25.289995   202.119988    33.530000
 C    25.139994   203.209983    32.639999
 S    26.619993   204.129997    32.320000
 C    24.179994   201.129998    33.910001
 H    23.460582   201.030633    33.090489
 H    23.627722   201.492914    34.783105
 C    24.829994   199.759988    34.220003
 H    25.809805   199.904702    34.686968
 H    24.990966   199.200677    33.292490
 C    23.899995   198.959985    35.170001
 H    22.937524   198.761011    34.687213
 H    23.690023   199.536524    36.076937
 C    24.619992   197.669992    35.500003
 H    24.554240   196.977152    34.654617
 H    24.140986   197.181468    36.354942
 C    26.079993   197.959985    35.820003
 H    26.198754   198.904321    36.361446
 H    26.688538   198.036858    34.912925
 C    26.509993   196.749994    36.690003
 H    25.911967   196.668574    37.603661
 H    26.401886   195.800867    36.154732
 H    27.557274   196.820551    37.001862
 C    23.839995   203.519982    32.360001
 C    23.829993   204.069984    31.099998
 H    24.359995   203.700004    30.179998
 C    22.779996   204.999992    31.040001
 C    22.059996   204.920006    32.239998
 S    22.589995   203.849999    33.520000
 C    22.459996   205.719993    29.730000
 H    21.440259   206.117454    29.764480
 H    22.506050   205.011558    28.896317
 C    23.459994   206.879997    29.479999
 H    23.257439   207.315924    28.496150
 H    24.476413   206.473091    29.461318
 C    23.399995   208.029991    30.559998
 H    22.983006   207.621101    31.486258
 H    22.718585   208.810310    30.205291
 C    24.779994   208.659980    30.859999
 H    24.613259   209.579490    31.430731
 H    25.236274   208.941246    29.905159
 C    25.759995   207.799995    31.619998
 H    26.632373   208.397941    31.903624
 H    26.119748   206.992286    30.974072
 C    25.119996   207.219993    32.850001
 H    24.766309   207.998315    33.534205
 H    24.254546   206.595040    32.606208
 H    25.815139   206.591744    33.416671
 C    21.129994   205.909997    32.420001
 C    21.489995   206.529992    33.599997
 H    22.229995   206.170006    34.249999
 C    20.529994   207.519997    33.880000
 C    19.609996   207.570000    32.769999
 S    19.709994   206.429985    31.440001
 C    20.529994   208.349984    35.179999
 H    19.926562   207.843988    35.940833
 H    20.066039   209.324532    34.995573
 C    21.939996   208.529993    35.669997
 H    22.149195   209.580606    35.896902
 H    22.665633   208.223810    34.909259
 C    22.039996   207.679987    36.889998
 H    23.040309   207.792444    37.320987
 H    21.922766   206.629892    36.602611
 C    20.999995   207.999994    37.990001
 H    20.002738   207.751642    37.612079
 H    21.019486   209.076791    38.187854
 C    21.229995   207.249995    39.310000
 H    20.457297   207.530070    40.033549
 H    22.196774   207.538768    39.735404
 C    21.199994   205.709986    39.089999
 H    20.240260   205.372049    38.685375
 H    21.973447   205.380716    38.388309
 H    21.362550   205.159205    40.022320
 C    18.769995   208.649986    33.010001
 C    19.409995   209.829994    32.650000
 H    20.329994   209.929985    32.099996
 C    18.699996   210.879983    33.199999
 C    17.429995   210.379998    33.559996
 S    17.079995   208.719994    33.549998
 C    19.399996   212.239998    33.269997
 H    18.662981   213.048424    33.222173
 H    20.071769   212.364906    32.414342
 C    20.189996   212.320000    34.579995
 H    20.438308   213.367089    34.782390
 H    21.131411   211.773400    34.461739
 C    19.429995   211.739984    35.819997
 H    19.210253   210.676386    35.680422
 H    18.472518   212.251138    35.964864
 C    20.369994   211.959985    37.039998
 H    20.651736   213.017070    37.087083
 H    21.288338   211.382426    36.891362
 C    19.719995   211.549998    38.349995
 H    20.400089   211.767283    39.180226
 H    19.543735   210.469279    38.349085
 C    18.399995   212.279994    38.569997
 H    18.532481   213.366481    38.601987
 H    17.678424   212.071955    37.773077
 H    17.923485   211.990856    39.512522
 C    16.479994   211.329980    33.959997
 C    15.949996   210.979989    35.199999
 H    16.389996   210.230005    35.759996
 C    14.729995   211.650002    35.379999
 C    14.739994   212.730004    34.509995
 S    15.809993   212.700004    33.069997
 C    13.659996   211.359994    36.479998
 H    12.703840   211.817208    36.204775
 H    13.968217   211.805536    37.431589
 C    13.519995   209.859994    36.610000
 H    12.777221   209.620340    37.378032
 H    14.470850   209.423731    36.933375
 C    13.099994   209.249993    35.280002
 H    13.314719   208.176263    35.284133
 H    13.689872   209.692223    34.470370
 C    11.649995   209.479988    35.040000
 H    11.393235   210.544395    35.052057
 H    11.024691   209.004143    35.802623
 C    11.449995   208.869987    33.689998
 H    11.889899   209.513206    32.920721
 H    10.380019   208.787071    33.472510
 C    12.099995   207.450004    33.599997
 H    13.179232   207.480568    33.782622
 H    11.674005   206.756691    34.332717
 H    11.958097   206.995674    32.613852
 C    13.709995   213.629998    34.709996
 C    14.169994   214.899987    34.969997
 H    15.099994   215.169991    35.499996
 C    13.269994   215.839988    34.459994
 C    12.159994   215.159996    33.939998
 S    11.979994   213.479988    34.289998
 C    13.679994   217.290001    34.459993
 H    14.192326   217.538888    35.395189
 H    12.796544   217.933570    34.393915
 C    14.619994   217.569999    33.259992
 H    14.045877   217.490347    32.330976
 H    15.397594   216.799690    33.228667
 C    15.249993   218.919990    33.349991
 H    14.506552   219.702339    33.535045
 H    15.761061   219.191199    32.420327
 C    16.209994   218.789986    34.489991
 H    16.795199   217.869057    34.398142
 H    15.672491   218.736170    35.442471
 C    17.159993   220.019997    34.489990
 H    17.859038   219.991190    35.332328
 H    16.604661   220.960015    34.573702
 C    17.869992   219.889991    33.149994
 H    18.423873   218.948890    33.068860
 H    17.168540   219.918448    32.309654
 H    18.591607   220.697517    32.988083
 C    11.559994   215.799994    32.869994
 C    10.169994   216.079993    33.079997
 H     9.569994   216.009987    33.959994
 C     9.659994   216.689993    31.909994
 C    10.659994   216.779989    30.919994
 S    12.249994   216.039999    31.239997
 C     8.239994   217.189992    31.889993
 H     8.158365   218.107656    31.298171
 H     7.897478   217.430884    32.901766
 C     7.369994   216.079992    31.279995
 H     7.561963   215.152608    31.829657
 H     7.692310   215.920918    30.245669
 C     5.899994   216.349996    31.289993
 H     5.706052   217.268528    30.726330
 H     5.580392   216.525274    32.322542
 C     5.029994   215.230000    30.699994
 H     5.291022   214.269490    31.156403
 H     5.214123   215.136127    29.624676
 C     3.569994   215.559987    30.959993
 H     3.305490   216.551823    30.578772
 H     3.340828   215.564153    32.030737
 C     2.819994   214.459980    30.229995
 H     3.040948   214.454853    29.157538
 H     3.076330   213.466008    30.611224
 H     1.734858   214.567555    30.329586
 C    10.489994   217.839985    30.089994
 C     9.939995   217.539982    28.849994
 H     9.239994   216.809986    28.589994
 C    10.309994   218.479984    27.859994
 C    11.299993   219.259998    28.349992
 S    11.559994   219.279989    30.109992
 C     9.679994   218.549975    26.489993
 H     9.767375   219.569537    26.100265
 H     8.611712   218.322573    26.567994
 C    10.329994   217.579973    25.509996
 H    10.095407   216.550004    25.798363
 H    11.419070   217.685548    25.552339
 C     9.839994   217.849991    24.119993
 H    10.455841   218.650528    23.697016
 H     8.814998   218.228165    24.193396
 C     9.839994   216.709975    23.149996
 H     9.435052   215.808670    23.621911
 H    10.862924   216.477142    22.836262
 C     8.989994   217.079985    21.919992
 H     8.811189   216.169554    21.338475
 H     9.570409   217.765730    21.293974
 C     7.619994   217.739988    22.219993
 H     6.974025   217.090011    22.819385
 H     7.729122   218.677505    22.775128
 H     7.069159   217.976439    21.303640
 C    12.039993   219.909976    27.339992
 C    12.039993   221.279987    27.469990
 H    11.449993   221.709979    28.309992
 C    12.599993   221.879992    26.299991
 C    13.349993   220.879977    25.679991
 S    13.039994   219.219988    26.089992
 C    12.499993   223.369982    26.049988
 H    11.526070   223.734286    26.393181
 H    12.557200   223.565385    24.974085
 C    13.599993   224.119997    26.759991
 H    14.524923   223.534548    26.787905
 H    13.327800   224.333148    27.798980
 C    13.799993   225.419985    25.969987
 H    14.717476   225.922900    26.292992
 H    12.970194   226.109393    26.157528
 C    13.879993   225.079973    24.469989
 H    12.940572   224.592438    24.189237
 H    14.685156   224.349823    24.337276
 C    14.119991   226.219986    23.509987
 H    15.085071   226.691407    23.723087
 H    13.350591   226.987931    23.641591
 C    14.099991   225.709975    22.079987
 H    14.871976   224.953750    21.903366
 H    13.140471   225.249754    21.822011
 H    14.271321   226.513090    21.355626
 C    14.039994   221.209993    24.529992
 C    13.279993   220.890000    23.439992
 H    12.239993   220.579987    23.599990
 C    14.069993   220.849975    22.259991
 C    15.259993   221.459975    22.609990
 S    15.659993   221.709977    24.269990
 C    13.599993   220.149977    20.969991
 H    14.019466   220.636151    20.083029
 H    12.510036   220.192198    20.873884
 C    14.089993   218.679976    21.079993
 H    15.181320   218.694975    21.168343
 H    13.841157   218.171506    20.142676
 C    13.529994   217.879989    22.219993
 H    12.466508   217.681548    22.050743
 H    13.606093   218.451554    23.150880
 C    14.279994   216.569976    22.359996
 H    15.302807   216.777877    22.691140
 H    14.347462   216.090574    21.377833
 C    13.629994   215.619980    23.329996
 H    14.173585   214.669709    23.353073
 H    12.605379   215.397063    23.014562
 C    13.619993   216.249986    24.729995
 H    14.631252   216.468004    25.088931
 H    13.065740   217.194108    24.750999
 H    13.154977   215.592821    25.472224
 C    16.129994   221.739973    21.579990
 C    16.519993   223.079985    21.649989
 H    16.239993   223.739989    22.419991
 C    17.319993   223.419965    20.629988
 C    17.439992   222.309995    19.709989
 S    16.699992   220.809980    20.209990
 C    17.789995   224.849988    20.489988
 H    17.097698   225.546721    20.974055
 H    17.854949   225.147457    19.438172
 C    19.169994   224.889982    21.159987
 H    19.729226   223.991696    20.878272
 H    19.039457   224.864638    22.246883
 C    19.959995   226.109983    20.779987
 H    20.997139   226.005323    21.115249
 H    19.549310   226.993879    21.279065
 C    19.919993   226.299969    19.279985
 H    18.894463   226.448605    18.926118
 H    20.310652   225.420178    18.758095
 C    20.779995   227.529980    18.999985
 H    20.428895   228.056972    18.106661
 H    21.820379   227.244700    18.812250
 C    20.669992   228.409986    20.229985
 H    19.636345   228.713559    20.426056
 H    21.027473   227.901487    21.131464
 H    21.256891   229.329067    20.130618
 C    18.189994   222.629986    18.599990
 C    19.399995   221.989971    18.599990
 H    19.759993   221.329968    19.359992
 C    20.169993   222.379985    17.459991
 C    19.359994   223.179987    16.649989
 S    17.649993   223.419962    17.119990
 C    21.579993   221.879984    17.169990
 H    22.179116   221.843669    18.085828
 H    22.097994   222.549143    16.475067
 C    21.429991   220.469980    16.559991
 H    20.554719   220.418374    15.904049
 H    21.294728   219.716959    17.343372
 C    22.759993   220.169976    15.729992
 H    23.614030   220.090738    16.410703
 H    22.964053   220.996788    15.041679
 C    22.569993   218.839989    14.939993
 H    21.806054   218.962745    14.165167
 H    22.223761   218.045373    15.609124
 C    23.909993   218.489981    14.329993
 H    23.838730   217.603782    13.690768
 H    24.655177   218.270515    15.101721
 C    24.349991   219.749976    13.479992
 H    23.629401   219.983267    12.689209
 H    24.444575   220.648963    14.097971
 H    25.318194   219.597616    12.991745
 C    20.149995   223.629983    15.629988
 C    19.659993   222.989967    14.509989
 H    18.749993   222.469978    14.319991
 C    20.639992   223.189978    13.519989
 C    21.659993   224.119986    13.929988
 S    21.349994   224.849984    15.499988
 C    20.729993   222.429967    12.199991
 H    21.761265   222.423115    11.831948
 H    20.118844   222.919163    11.434349
 C    20.239993   220.999975    12.439991
 H    19.236478   221.043951    12.875935
 H    20.898045   220.524786    13.174967
 C    20.189994   220.119968    11.189992
 H    19.679192   220.639042    10.372264
 H    19.627339   219.201359    11.386466
 C    21.629994   219.799961    10.809991
 H    22.158263   219.395360    11.679621
 H    22.145457   220.720066    10.515504
 C    21.689992   218.789965     9.659994
 H    20.982375   217.977420     9.855106
 H    22.691689   218.349734     9.617303
 C    21.359992   219.429978     8.289993
 H    20.354775   219.863816     8.271391
 H    22.057322   220.234650     8.034532
 H    21.405503   218.700347     7.474771
 C    22.639992   224.369970    12.959988
 C    22.199994   225.399984    12.119987
 H    21.329991   226.059988    12.179986
 C    23.079995   225.489963    11.059986
 C    23.919993   224.369968    11.089987
 S    23.989993   223.359976    12.559988
 C    22.919993   226.549975     9.979985
 H    22.227267   226.176058     9.218845
 H    23.888795   226.707904     9.494694
 C    22.399993   227.909977    10.489984
 H    23.234618   228.586261    10.702257
 H    21.842045   227.783299    11.423618
 C    21.489993   228.499972     9.389984
 H    22.098937   229.109270     8.713992
 H    20.753401   229.162860     9.855856
 C    20.759993   227.429964     8.579985
 H    20.308295   226.705432     9.265579
 H    21.485589   226.885438     7.966779
 C    19.709992   228.019974     7.709984
 H    19.147545   227.243134     7.181587
 H    20.145783   228.672164     6.945943
 C    18.769993   228.829958     8.639983
 H    18.305234   228.198367     9.404259
 H    19.303157   229.626971     9.168664
 H    17.955619   229.307314     8.085051
 C    24.509993   224.089968     9.889988
 C    24.269993   222.779971     9.719989
 H    23.619992   222.159977    10.289991
 C    24.929993   222.349977     8.559989
 C    25.579995   223.449968     7.979988
 S    25.689994   224.969973     8.859987
 C    25.069993   220.889986     8.289991
 H    25.965735   220.701432     7.689059
 H    24.210921   220.528290     7.715359
 C    25.169993   220.079959     9.629991
 H    24.263489   220.233967    10.224597
 H    26.014147   220.447254    10.222885
 C    25.349993   218.599978     9.309992
 H    26.219694   218.513582     8.650311
 H    24.469514   218.280734     8.742662
 C    25.539991   217.619968    10.439994
 H    24.657991   217.625157    11.088896
 H    26.394841   217.921802    11.054122
 C    25.769991   216.209979     9.899995
 H    25.797458   215.487964    10.722770
 H    26.738624   216.150851     9.392771
 C    24.659993   215.899966     8.959995
 H    23.682472   215.941256     9.451693
 H    24.623355   216.603960     8.122095
 H    24.755686   214.898164     8.528400
 C    26.239995   223.159973     6.749988
 C    25.639992   223.709975     5.669988
 H    24.689994   224.179962     5.619988
 C    26.329990   223.429975     4.479988
 C    27.409992   222.549956     4.819989
 S    27.639992   222.089965     6.499989
 C    25.969991   224.099972     3.129988
 H    24.887912   224.250683     3.056383
 H    26.265419   223.456341     2.294827
 C    26.709992   225.459957     3.049986
 H    27.092826   225.637355     2.039544
 H    27.574523   225.474225     3.721857
 C    25.689994   226.469968     3.439986
 H    25.403033   226.329679     4.487363
 H    24.782492   226.338528     2.841494
 C    26.239995   227.839962     3.239985
 H    26.628867   227.955013     2.222848
 H    27.069268   228.027433     3.930044
 C    25.089993   228.939954     3.489984
 H    24.660378   228.799254     4.487311
 H    24.285376   228.799633     2.760652
 C    25.689994   230.369977     3.359983
 H    26.490577   230.546461     4.085892
 H    26.117364   230.546826     2.367461
 H    24.936484   231.147413     3.523799
 C    28.159992   222.009977     3.789989
 C    28.179992   220.609983     3.939990
 H    27.529993   220.089980     4.639991
 C    29.119991   220.099972     3.079991
 C    29.809991   221.179959     2.429990
 S    29.279991   222.859951     2.639989
 C    29.389991   218.579968     2.849992
 H    29.239603   218.016996     3.777070
 H    30.428054   218.414822     2.543109
 C    28.429992   218.159969     1.789993
 H    28.679891   218.630701     0.833442
 H    27.413112   218.479640     2.040567
 C    28.509992   216.689967     1.689994
 H    27.879980   216.319819     0.874456
 H    28.150176   216.216503     2.609440
 C    29.969991   216.309963     1.439994
 H    30.057492   215.218486     1.434377
 H    30.581659   216.684261     2.267512
 C    30.529991   216.859980     0.119994
 H    30.312620   217.925653    -0.006923
 H    30.106826   216.349054    -0.751165
 C    32.019992   216.589960     0.279994
 H    32.438381   217.102518     1.152495
 H    32.232238   215.523264     0.407004
 H    32.593505   216.925882    -0.590215
 C    30.819992   220.829967     1.559990
 C    31.969993   220.719966     2.259990
 H    32.149990   220.959973     3.259990
 C    32.969993   220.089976     1.479991
 C    32.549995   220.059961     0.139991
 S    30.889991   220.599954    -0.190010
 C    34.359993   219.609965     1.929991
 H    35.076599   220.426111     1.790654
 H    34.673595   218.783686     1.283517
 C    34.409993   219.149975     3.379991
 H    34.114476   219.984173     4.024814
 H    35.444413   218.895703     3.633653
 C    33.539993   217.989956     3.649992
 H    33.984413   217.097377     3.197409
 H    32.570335   218.150936     3.167420
 C    33.299992   217.709958     5.129992
 H    32.825082   218.581252     5.592960
 H    34.260884   217.554579     5.631559
 C    32.399995   216.459959     5.359994
 H    31.349559   216.704374     5.170595
 H    32.468476   216.125014     6.400257
 C    32.889991   215.389966     4.409995
 H    32.819854   215.706616     3.364123
 H    33.937436   215.127942     4.592316
 H    32.311378   214.464750     4.500577
 C    33.509994   219.859963    -0.870009
 C    34.099994   221.089958    -1.190010
 H    34.089992   221.979958    -0.560011
 C    34.589992   221.109961    -2.540010
 C    34.409992   219.829962    -3.070009
 S    33.769992   218.529960    -1.980008
 C    34.949990   222.429953    -3.230012
 H    34.677548   222.342977    -4.287006
 H    36.036587   222.553640    -3.174956
 C    34.299992   223.719961    -2.680013
 H    34.872197   224.574881    -3.055152
 H    34.396428   223.710181    -1.589312
 C    32.839993   223.929953    -3.030014
 H    32.561413   223.307637    -3.886830
 H    32.664662   224.971380    -3.319323
 C    31.989990   223.569968    -1.820013
 H    32.170677   224.301201    -1.025235
 H    32.303062   222.591576    -1.440871
 C    30.499993   223.529960    -2.130014
 H    29.959888   223.146248    -1.258191
 H    30.322077   222.837194    -2.959132
 C    29.909993   224.929954    -2.510015
 H    30.033730   225.659920    -1.703257
 H    30.394305   225.352240    -3.396659
 H    28.838328   224.877799    -2.728730
 C    34.829995   219.839955    -4.390009
 C    36.239994   219.859959    -4.370009
 H    36.899994   219.889958    -3.490009
 C    36.719993   219.679965    -5.670009
 C    35.599990   219.359972    -6.510009
 S    33.949994   219.429965    -5.870009
 C    38.209991   220.039949    -6.130009
 H    38.175399   220.402833    -7.162552
 H    38.806324   219.121614    -6.121558
 C    38.869996   221.079959    -5.250011
 H    38.909604   220.734577    -4.211663
 H    38.297600   222.013339    -5.263932
 C    40.369996   221.369951    -5.770011
 H    40.389798   221.379670    -6.864790
 H    41.041127   220.571535    -5.436631
 C    40.819993   222.739962    -5.200012
 H    40.858945   222.676655    -4.107538
 H    40.072606   223.497194    -5.458943
 C    42.189992   223.179964    -5.730013
 H    42.420033   224.189165    -5.372773
 H    42.167988   223.226074    -6.823820
 C    43.209992   222.219957    -5.270012
 H    43.260472   222.167148    -4.177447
 H    43.008602   221.204729    -5.627489
 H    44.212292   222.486680    -5.621138
 H    35.863209   219.166406    -7.555128
